Códigos/34_barras/ieee34Mod1.dss
! Standard (Mod 1) model of IEEE 34 Bus Test Feeder

! Note: Mod 2 better accounts for distributed load.

Clear
Set DefaultBaseFrequency=60

New object=circuit.ieee34-1
~ basekv=69 pu=1.05 angle=30 mvasc3=200000  !stiffen up a bit over DSS default

! Substation Transformer  -- Modification: Make source very stiff by defining a tiny leakage Z
New Transformer.SubXF Phases=3 Windings=2 Xhl=0.01    ! normally 8
~ wdg=1 bus=sourcebus conn=Delta kv=69    kva=25000   %r=0.0005   !reduce %r, too
~ wdg=2 bus=1       conn=wye   kv=24.9  kva=25000   %r=0.0005

! import line codes with phase impedance matrices
Redirect        IEEELineCodes.dss   ! revised according to Later test feeder doc
!Redirect        pvs4.dss                  ! IMportar o arquivo do sistema fotovoltaico

!New Loadshape.perfil npts=24 interval=1
!~ mult=(0.69 0.50 0.44 0.41 0.55 0.85 1.01 0.80 0.89 0.91 1.02 1.03 1.11 0.98 0.94 0.94 1.02 1.26 1.51  1.59 1.75 1.50 1.29 0.89)


! Lines
New Line.L1     Phases=3 Bus1=1.1.2.3  Bus2=2.1.2.3  	LineCode=300  Length=0.786383975   	units=km
New Line.L2     Phases=3 Bus1=2.1.2.3  Bus2=3.1.2.3  	LineCode=300  Length=0.527303983   	units=km
New Line.L3     Phases=3 Bus1=3.1.2.3  Bus2=4.1.2.3  	LineCode=300  Length=9.823703686 	units=km
New Line.L4     Phases=1 Bus1=4.2      Bus2=5.2      	LineCode=303  Length=1.769059143   	units=km
New Line.L5     Phases=3 Bus1=4.1.2.3  Bus2=6.1.2.3  	LineCode=300  Length=11.42999963  	units=km
New Line.L6     Phases=3 Bus1=6.1.2.3  Bus2=7.1.2.3  	LineCode=300  Length=9.06170371   	units=km
New Line.L7     Phases=3 Bus1=7r.1.2.3 Bus2=8.1.2.3  	LineCode=301  Length=0.003048   	units=km
New Line.L8     Phases=1 Bus1=9.1      Bus2=12.1      	LineCode=302  Length=0.521207983   	units=km
New Line.L9     Phases=3 Bus1=9.1.2.3  Bus2=10.1.2.3  	LineCode=301  Length=3.1120079   	units=km
New Line.L10    Phases=1 Bus1=12.1      Bus2=13.1      	LineCode=302  Length=14.67611953   	units=km
New Line.L11    Phases=1 Bus1=13.1      Bus2=14.1     	LineCode=302  Length=4.187951866   	units=km
New Line.L12    Phases=1 Bus1=10.2      Bus2=11.2      	LineCode=303  Length=0.92354397   	units=km
New Line.L13    Phases=3 Bus1=10.1.2.3  Bus2=15.1.2.3  	LineCode=301  Length=0.256031992   	units=km
New Line.L14    Phases=3 Bus1=15.1.2.3  Bus2=16.1.2.3  	LineCode=301  Length=6.230111801   	units=km
New Line.L15    Phases=3 Bus1=16.1.2.3  Bus2=17.1.2.3  	LineCode=301  Length=0.158495995   	units=km
New Line.L16    Phases=3 Bus1=20.1.2.3  Bus2=21.1.2.3  	LineCode=301  Length=1.493519952   	units=km
New Line.L17    Phases=3 Bus1=23.1.2.3  Bus2=24.1.2.3  	LineCode=301  Length=0.61569598   	units=km
New Line.L18    Phases=3 Bus1=23.1.2.3  Bus2=27.1.2.3  	LineCode=301  Length=0.085343997   	units=km
New Line.L19    Phases=3 Bus1=25.1.2.3  Bus2=26.1.2.3  	LineCode=301  Length=0.262127992  	units=km
New Line.L20    Phases=3 Bus1=25.1.2.3  Bus2=31.1.2.3  	LineCode=301  Length=0.085343997   	units=km
New Line.L21    Phases=3 Bus1=27.1.2.3  Bus2=28.1.2.3  	LineCode=301  Length=0.411479987   	units=km
New Line.L22    Phases=3 Bus1=28.1.2.3  Bus2=29.1.2.3  	LineCode=301  Length=1.109471964   	units=km
New Line.L23    Phases=3 Bus1=29.1.2.3  Bus2=30.1.2.3  	LineCode=301  Length=0.161543995   	units=km
New Line.L24    Phases=3 Bus1=8.1.2.3  Bus2=9.1.2.3  	LineCode=301  Length=0.094487997   	units=km
New Line.L25    Phases=3 Bus1=19r.1.2.3 Bus2=20.1.2.3  	LineCode=301  Length=0.003048  		units=km

! 24.9/4.16 kV  Transformer
New Transformer.XFM1  Phases=3 Windings=2 Xhl=4.08
~ wdg=1 bus=20       conn=wye   kv=24.9  kva=500    %r=0.95
~ wdg=2 bus=33       conn=Wye   kv=4.16  kva=500    %r=0.95

New Line.L26    Phases=1 Bus1=17.2      Bus2=18.2      LineCode=303  Length=7.110983772   units=km
New Line.L27    Phases=3 Bus1=17.1.2.3  Bus2=19.1.2.3  LineCode=301  Length=11.22578364   units=km
! 9-17-10 858-864 changed to phase A per error report
New Line.L28    Phases=1 Bus1=21.1      Bus2=22.1      LineCode=303  Length=0.493775984   units=km
New Line.L29    Phases=3 Bus1=21.1.2.3  Bus2=23.1.2.3  LineCode=301  Length=1.776983943   units=km
New Line.L30    Phases=3 Bus1=24.1.2.3  Bus2=25.1.2.3  LineCode=301  Length=0.816863974
   units=kft
New Line.L31    Phases=1 Bus1=31.2      Bus2=32.2      LineCode=304  Length=1.481327953   units=km
New Line.L32    Phases=3 Bus1=33.1.2.3  Bus2=34.1.2.3  LineCode=300  Length=3.218687897   units=km
!New Line.L33    Phases=3 Bus1=34.1.2.3  Bus2=900.1.2.3  LineCode=300  Length= .56   units=kft 

! Capacitors
New Capacitor.C844      Bus1=28        Phases=3        kVAR=300        kV=24.9
New Capacitor.C848      Bus1=30        Phases=3        kVAR=450        kV=24.9

! Regulators - three independent phases
! Regulator 1
new transformer.reg1a phases=1 windings=2 bank=reg1 buses=(7.1 7r.1) conns='wye wye' kvs="14.376 14.376" kvas="20000 20000" XHL=1
new regcontrol.creg1a transformer=reg1a winding=2 vreg=122 band=2 ptratio=120 ctprim=100 R=2.7 X=1.6
new transformer.reg1b phases=1 windings=2 bank=reg1 buses=(7.2 7r.2) conns='wye wye' kvs="14.376 14.376" kvas="20000 20000" XHL=1
new regcontrol.creg1b transformer=reg1b winding=2 vreg=122 band=2 ptratio=120 ctprim=100 R=2.7 X=1.6
new transformer.reg1c phases=1 windings=2 bank=reg1 buses=(7.3 7r.3) conns='wye wye' kvs="14.376 14.376" kvas="20000 20000" XHL=1
new regcontrol.creg1c transformer=reg1c winding=2 vreg=122 band=2 ptratio=120 ctprim=100 R=2.7 X=1.6

! Regulator 2
new transformer.reg2a phases=1 windings=2 bank=reg2 buses=(19.1 19r.1) conns='wye wye' kvs="14.376 14.376" kvas="20000 20000" XHL=1
new regcontrol.creg2a transformer=reg2a winding=2 vreg=124 band=2 ptratio=120 ctprim=100 R=2.5 X=1.5
new transformer.reg2b phases=1 windings=2 bank=reg2 buses=(19.2 19r.2) conns='wye wye' kvs="14.376 14.376" kvas="20000 20000" XHL=1
new regcontrol.creg2b transformer=reg2b winding=2 vreg=124 band=2 ptratio=120 ctprim=100 R=2.5 X=1.5
new transformer.reg2c phases=1 windings=2 bank=reg2 buses=(19.3 19r.3) conns='wye wye' kvs="14.376 14.376" kvas="20000 20000" XHL=1
new regcontrol.creg2c transformer=reg2c winding=2 vreg=124 band=2 ptratio=120 ctprim=100 R=2.5 X=1.5



! spot loads
New Load.S860       Bus1=24   Phases=3 Conn=Wye   Model=1 kV= 24.900 kW=  60.0 kVAR=  48.0 !daily = perfil
New Load.S840       Bus1=26   Phases=3 Conn=Wye   Model=5 kV= 24.900 kW=  27.0 kVAR=  21.0	 !daily = perfil
New Load.S844       Bus1=28   Phases=3 Conn=Wye   Model=2 kV= 24.900 kW= 405.0 kVAR= 315  !daily = perfil

New Load.S848       Bus1=30   Phases=3 Conn=Delta Model=1 kV= 24.900 kW=  60.0 kVAR=  48.0	    !daily = perfil
New Load.S830a      Bus1=16.1.2 Phases=1 Conn=Delta Model=2 kV= 24.900 kW=  10.0 kVAR=   5.0  !daily = perfil
New Load.S830b      Bus1=16.2.3 Phases=1 Conn=Delta Model=2 kV= 24.900 kW=  10.0 kVAR=   5.0  !daily = perfil
New Load.S830c      Bus1=16.3.1 Phases=1 Conn=Delta Model=2 kV= 24.900 kW=  25.0 kVAR=  10.0  !daily = perfil
New Load.S890       Bus1=34   Phases=3 Conn=Delta Model=5 kV=    4.160 kW= 450.0 kVAR= 225.0   !daily = perfil  !503 KVA APROXIMADAMENTE


! distributed loads
New Load.D802_806sb Bus1=2.2 Phases=1 Conn=Wye   Model=1 kV= 14.376 kW=  15.0 kVAR=   7.5 
New Load.D802_806rb Bus1=3.2 Phases=1 Conn=Wye   Model=1 kV= 14.376 kW=  15.0 kVAR=   7.5
New Load.D802_806sc Bus1=2.3 Phases=1 Conn=Wye   Model=1 kV= 14.376 kW=  12.5 kVAR=   7.0
New Load.D802_806rc Bus1=3.3 Phases=1 Conn=Wye   Model=1 kV= 14.376 kW=  12.5 kVAR=   7.0

New Load.D808_810sb Bus1=4.2 Phases=1 Conn=Wye   Model=4 kV= 14.376 kW=   8.0 kVAR=   4.0
New Load.D808_810rb Bus1=5.2 Phases=1 Conn=Wye   Model=4 kV= 14.376 kW=   8.0 kVAR=   4.0

New Load.D818_820sa Bus1=12.1 Phases=1 Conn=Wye   Model=2 kV= 14.376 kW=  17.0 kVAR=   8.5
New Load.D818_820ra Bus1=13.1 Phases=1 Conn=Wye   Model=2 kV= 14.376 kW=  17.0 kVAR=   8.5

New Load.D820_822sa Bus1=13.1 Phases=1 Conn=Wye   Model=1 kV= 14.376 kW=  67.5 kVAR=  35.0  !daily = perfil
New Load.D820_822ra Bus1=14.1 Phases=1 Conn=Wye   Model=1 kV= 14.376 kW=  67.5 kVAR=  35.0  !daily = perfil


New Load.D816_824sb Bus1=9.2.3 Phases=1 Conn=Delta Model=5 kV= 24.900 kW=   2.5 kVAR=   1.0
New Load.D816_824rb Bus1=10.2.3 Phases=1 Conn=Delta Model=5 kV= 24.900 kW=   2.5 kVAR=   1.0

New Load.D824_826sb Bus1=10.2 Phases=1 Conn=Wye   Model=5 kV= 14.376 kW=  20.0 kVAR=  10.0
New Load.D824_826rb Bus1=11.2 Phases=1 Conn=Wye   Model=5 kV= 14.376 kW=  20.0 kVAR=  10.0
New Load.D824_828sc Bus1=10.3 Phases=1 Conn=Wye   Model=1 kV= 14.376 kW=   2.0 kVAR=   1.0
New Load.D824_828rc Bus1=15.3 Phases=1 Conn=Wye   Model=1 kV= 14.376 kW=   2.0 kVAR=   1.0

New Load.D828_830sa Bus1=15.1 Phases=1 Conn=Wye   Model=1 kV= 14.376 kW=   3.5 kVAR=   1.5
New Load.D828_830ra Bus1=16.1 Phases=1 Conn=Wye   Model=1 kV= 14.376 kW=   3.5 kVAR=   1.5

New Load.D854_856sb Bus1=17.2 Phases=1 Conn=Wye   Model=1 kV= 14.376 kW=   2.0 kVAR=   1.0
New Load.D854_856rb Bus1=18.2 Phases=1 Conn=Wye   Model=1 kV= 14.376 kW=   2.0 kVAR=   1.0


New Load.D832_858sa Bus1=20.1 Phases=1 Conn=Delta Model=2 kV= 24.900 kW=   3.5 kVAR=   1.5
New Load.D832_858ra Bus1=21.1 Phases=1 Conn=Delta Model=2 kV= 24.900 kW=   3.5 kVAR=   1.5
New Load.D832_858sb Bus1=20.2 Phases=1 Conn=Delta Model=2 kV= 24.900 kW=   1.0 kVAR=   0.5
New Load.D832_858rb Bus1=21.2 Phases=1 Conn=Delta Model=2 kV= 24.900 kW=   1.0 kVAR=   0.5
New Load.D832_858sc Bus1=20.3 Phases=1 Conn=Delta Model=2 kV= 24.900 kW=   3.0 kVAR=   1.5
New Load.D832_858rc Bus1=21.3 Phases=1 Conn=Delta Model=2 kV= 24.900 kW=   3.0 kVAR=   1.5

! 9-17-10 858-864 changed to phase A per error report
New Load.D858_864sb Bus1=21.1 Phases=1 Conn=Wye   Model=1 kV= 14.376 kW=   1.0 kVAR=   0.5
New Load.D858_864rb Bus1=22.1 Phases=1 Conn=Wye   Model=1 kV= 14.376 kW=   1.0 kVAR=   0.5


New Load.D858_834sa Bus1=21.1.2 Phases=1 Conn=Delta Model=1 kV= 24.900 kW=   2.0 kVAR=   1.0
New Load.D858_834ra Bus1=23.1.2 Phases=1 Conn=Delta Model=1 kV= 24.900 kW=   2.0 kVAR=   1.0
New Load.D858_834sb Bus1=21.2.3 Phases=1 Conn=Delta Model=1 kV= 24.900 kW=   7.5 kVAR=   4.0
New Load.D858_834rb Bus1=23.2.3 Phases=1 Conn=Delta Model=1 kV= 24.900 kW=   7.5 kVAR=   4.0
New Load.D858_834sc Bus1=21.3.1 Phases=1 Conn=Delta Model=1 kV= 24.900 kW=   6.5 kVAR=   3.5
New Load.D858_834rc Bus1=23.3.1 Phases=1 Conn=Delta Model=1 kV= 24.900 kW=   6.5 kVAR=   3.5

! PAREI AQUI

New Load.D834_860sa Bus1=23.1.2 Phases=1 Conn=Delta Model=2 kV= 24.900 kW=   8.0 kVAR=   4.0
New Load.D834_860ra Bus1=24.1.2 Phases=1 Conn=Delta Model=2 kV= 24.900 kW=   8.0 kVAR=   4.0
New Load.D834_860sb Bus1=23.2.3 Phases=1 Conn=Delta Model=2 kV= 24.900 kW=  10.0 kVAR=   5.0
New Load.D834_860rb Bus1=24.2.3 Phases=1 Conn=Delta Model=2 kV= 24.900 kW=  10.0 kVAR=   5.0
New Load.D834_860sc Bus1=23.3.1 Phases=1 Conn=Delta Model=2 kV= 24.900 kW=  55.0 kVAR=  27.5
New Load.D834_860rc Bus1=24.3.1 Phases=1 Conn=Delta Model=2 kV= 24.900 kW=  55.0 kVAR=  27.5

New Load.D860_836sa Bus1=24.1.2 Phases=1 Conn=Delta Model=1 kV= 24.900 kW=  15.0 kVAR=   7.5
New Load.D860_836ra Bus1=25.1.2 Phases=1 Conn=Delta Model=1 kV= 24.900 kW=  15.0 kVAR=   7.5
New Load.D860_836sb Bus1=24.2.3 Phases=1 Conn=Delta Model=1 kV= 24.900 kW=   5.0 kVAR=   3.0
New Load.D860_836rb Bus1=25.2.3 Phases=1 Conn=Delta Model=1 kV= 24.900 kW=   5.0 kVAR=   3.0
New Load.D860_836sc Bus1=24.3.1 Phases=1 Conn=Delta Model=1 kV= 24.900 kW=  21.0 kVAR=  11.0
New Load.D860_836rc Bus1=25.3.1 Phases=1 Conn=Delta Model=1 kV= 24.900 kW=  21.0 kVAR=  11.0

New Load.D836_840sa Bus1=25.1.2 Phases=1 Conn=Delta Model=5 kV= 24.900 kW=   9.0 kVAR=   4.5
New Load.D836_840ra Bus1=26.1.2 Phases=1 Conn=Delta Model=5 kV= 24.900 kW=   9.0 kVAR=   4.5
New Load.D836_840sb Bus1=25.2.3 Phases=1 Conn=Delta Model=5 kV= 24.900 kW=  11.0 kVAR=   5.5
New Load.D836_840rb Bus1=26.2.3 Phases=1 Conn=Delta Model=5 kV= 24.900 kW=  11.0 kVAR=   5.5

New Load.D862_838sb Bus1=31.2 Phases=1 Conn=Wye   Model=1 kV= 14.376 kW=  14.0 kVAR=   7.0
New Load.D862_838rb Bus1=32.2 Phases=1 Conn=Wye   Model=1 kV= 14.376 kW=  14.0 kVAR=   7.0

New Load.D842_844sa Bus1=27.1 Phases=1 Conn=Wye   Model=1 kV= 14.376 kW=   4.5 kVAR=   2.5
New Load.D842_844ra Bus1=28.1 Phases=1 Conn=Wye   Model=1 kV= 14.376 kW=   4.5 kVAR=   2.5

New Load.D844_846sb Bus1=28.2 Phases=1 Conn=Wye   Model=1 kV= 14.376 kW=  12.5 kVAR=   6.0
New Load.D844_846rb Bus1=29.2 Phases=1 Conn=Wye   Model=1 kV= 14.376 kW=  12.5 kVAR=   6.0
New Load.D844_846sc Bus1=28.3 Phases=1 Conn=Wye   Model=1 kV= 14.376 kW=  10.0 kVAR=   5.5
New Load.D844_846rc Bus1=29.3 Phases=1 Conn=Wye   Model=1 kV= 14.376 kW=  10.0 kVAR=   5.5

New Load.D846_848sb Bus1=29.2 Phases=1 Conn=Wye   Model=1 kV= 14.376 kW=  11.5 kVAR=   5.5
New Load.D846_848rb Bus1=30.2 Phases=1 Conn=Wye   Model=1 kV= 14.376 kW=  11.5 kVAR=   5.5

! Script to revise Vminpu property on all loads to allow voltage to sag to 85% without switching
! to constant Z model
Load.s860.vminpu=.85
Load.s840.vminpu=.85
Load.s844.vminpu=.85
Load.s848.vminpu=.85
Load.s830a.vminpu=.85
Load.s830b.vminpu=.85
Load.s830c.vminpu=.85
Load.s890.vminpu=.85
Load.d802_806sb.vminpu=.85
Load.d802_806rb.vminpu=.85
Load.d802_806sc.vminpu=.85
Load.d802_806rc.vminpu=.85
Load.d808_810sb.vminpu=.85
Load.d808_810rb.vminpu=.85
Load.d818_820sa.vminpu=.85
Load.d818_820ra.vminpu=.85
Load.d820_822sa.vminpu=.85
Load.d820_822ra.vminpu=.85
Load.d816_824sb.vminpu=.85
Load.d816_824rb.vminpu=.85
Load.d824_826sb.vminpu=.85
Load.d824_826rb.vminpu=.85
Load.d824_828sc.vminpu=.85
Load.d824_828rc.vminpu=.85
Load.d828_830sa.vminpu=.85
Load.d828_830ra.vminpu=.85
Load.d854_856sb.vminpu=.85
Load.d854_856rb.vminpu=.85
Load.d832_858sa.vminpu=.85
Load.d832_858ra.vminpu=.85
Load.d832_858sb.vminpu=.85
Load.d832_858rb.vminpu=.85
Load.d832_858sc.vminpu=.85
Load.d832_858rc.vminpu=.85
Load.d858_864sb.vminpu=.85
Load.d858_864rb.vminpu=.85
Load.d858_834sa.vminpu=.85
Load.d858_834ra.vminpu=.85
Load.d858_834sb.vminpu=.85
Load.d858_834rb.vminpu=.85
Load.d858_834sc.vminpu=.85
Load.d858_834rc.vminpu=.85
Load.d834_860sa.vminpu=.85
Load.d834_860ra.vminpu=.85
Load.d834_860sb.vminpu=.85
Load.d834_860rb.vminpu=.85
Load.d834_860sc.vminpu=.85
Load.d834_860rc.vminpu=.85
Load.d860_836sa.vminpu=.85
Load.d860_836ra.vminpu=.85
Load.d860_836sb.vminpu=.85
Load.d860_836rb.vminpu=.85
Load.d860_836sc.vminpu=.85
Load.d860_836rc.vminpu=.85
Load.d836_840sa.vminpu=.85
Load.d836_840ra.vminpu=.85
Load.d836_840sb.vminpu=.85
Load.d836_840rb.vminpu=.85
Load.d862_838sb.vminpu=.85
Load.d862_838rb.vminpu=.85
Load.d842_844sa.vminpu=.85
Load.d842_844ra.vminpu=.85
Load.d844_846sb.vminpu=.85
Load.d844_846rb.vminpu=.85
Load.d844_846sc.vminpu=.85
Load.d844_846rc.vminpu=.85
Load.d846_848sb.vminpu=.85
Load.d846_848rb.vminpu=.85

!set mode = snapshot
! let the DSS estimate voltage bases automatically
Set VoltageBases = [69, 24.9, 4.16, 0.6, 0.48]
CalcVoltageBases

New EnergyMeter.sub element=Line.L1 terminal=1

solve